src/tests/data/grids/DGS/IEEE30_test_sorted.dgs
********************************************************************************
*
* DIgSILENT (R) DGS Export V1.8.4
* Copyright 1997-2026 DIgSILENT GmbH. All rights reserved.
*
* DIgSILENT (C) PowerFactory V25.0.3.0
*
* Date:     01/22/2026 12:57
* Project:  Import(1) (Study Case: Study Case)
*
********************************************************************************


$$General;FID(a:40);Descr(a:40);Val(a:255)
  1;Version;7.0


$$ChaRef;FID(a:40);OP(a:1);loc_name(a:80);fold_id(p)
  2;C;vmax;ElmTerm_1
  3;C;vmin;ElmTerm_1
  4;C;vmax;ElmTerm_10
  5;C;vmin;ElmTerm_10
  6;C;vmax;ElmTerm_11
  7;C;vmin;ElmTerm_11
  8;C;vmax;ElmTerm_12
  9;C;vmin;ElmTerm_12
  10;C;vmax;ElmTerm_13
  11;C;vmin;ElmTerm_13
  12;C;vmax;ElmTerm_14
  13;C;vmin;ElmTerm_14
  14;C;vmax;ElmTerm_15
  15;C;vmin;ElmTerm_15
  16;C;vmax;ElmTerm_16
  17;C;vmin;ElmTerm_16
  18;C;vmax;ElmTerm_17
  19;C;vmin;ElmTerm_17
  20;C;vmax;ElmTerm_18
  21;C;vmin;ElmTerm_18
  22;C;vmax;ElmTerm_19
  23;C;vmin;ElmTerm_19
  24;C;vmax;ElmTerm_2
  25;C;vmin;ElmTerm_2
  26;C;vmax;ElmTerm_20
  27;C;vmin;ElmTerm_20
  28;C;vmax;ElmTerm_21
  29;C;vmin;ElmTerm_21
  30;C;vmax;ElmTerm_22
  31;C;vmin;ElmTerm_22
  32;C;vmax;ElmTerm_23
  33;C;vmin;ElmTerm_23
  34;C;vmax;ElmTerm_24
  35;C;vmin;ElmTerm_24
  36;C;vmax;ElmTerm_25
  37;C;vmin;ElmTerm_25
  38;C;vmax;ElmTerm_26
  39;C;vmin;ElmTerm_26
  40;C;vmax;ElmTerm_27
  41;C;vmin;ElmTerm_27
  42;C;vmax;ElmTerm_28
  43;C;vmin;ElmTerm_28
  44;C;vmax;ElmTerm_29
  45;C;vmin;ElmTerm_29
  46;C;vmax;ElmTerm_3
  47;C;vmin;ElmTerm_3
  48;C;vmax;ElmTerm_30
  49;C;vmin;ElmTerm_30
  50;C;vmax;ElmTerm_4
  51;C;vmin;ElmTerm_4
  52;C;vmax;ElmTerm_5
  53;C;vmin;ElmTerm_5
  54;C;vmax;ElmTerm_6
  55;C;vmin;ElmTerm_6
  56;C;vmax;ElmTerm_7
  57;C;vmin;ElmTerm_7
  58;C;vmax;ElmTerm_8
  59;C;vmin;ElmTerm_8
  60;C;vmax;ElmTerm_9
  61;C;vmin;ElmTerm_9
  62;C;fline;111
  63;C;fline;115
  64;C;fline;116
  65;C;fline;117
  66;C;fline;118
  67;C;fline;120
  68;C;fline;121
  69;C;fline;122
  70;C;fline;123
  71;C;fline;124
  72;C;fline;134
  73;C;fline;135
  74;C;fline;136
  75;C;fline;137
  76;C;fline;138
  77;C;fline;139
  78;C;fline;141
  79;C;fline;142
  80;C;ratfac;ElmTr2_4_12_1
  81;C;ratfac;ElmTr2_6_10_1
  82;C;ratfac;ElmTr2_6_9_1
  83;C;ratfac;
  84;C;ratfac;


$$ChaVec;FID(a:40);OP(a:1);loc_name(a:80);fold_id(p);scale(p);usage(i);approx(i);vector:SIZEROW(i);vector:0(r);vector:1(r);vector:2(r);vector:3(r);vector:4(r);vector:5(r);vector:6(r);vector:7(r);vector:8(r);vector:9(r);vector:10(r);vector:11(r)
  85;C;0.9_0.9;;;2;0;2;0,9;0,9;;;;;;;;;;
  86;C;1.1_1.1;;;2;0;2;1,1;1,1;;;;;;;;;;
  87;C;lne_10_20_1;;;0;0;12;100;0;0;0;0;0;0;0;0;0;0;0
  88;C;lne_12_15_1;;;0;0;12;100;0;0;0;0;0;0;0;0;0;0;0
  89;C;lne_12_16_1;;;0;0;12;100;0;0;0;0;0;0;0;0;0;0;0
  90;C;lne_14_15_1;;;0;0;12;100;0;0;0;0;0;0;0;0;0;0;0
  91;C;lne_15_18_1;;;0;0;12;100;0;0;0;0;0;0;0;0;0;0;0
  92;C;lne_16_17_1;;;0;0;12;100;0;0;0;0;0;0;0;0;0;0;0
  93;C;lne_18_19_1;;;0;0;12;100;0;0;0;0;0;0;0;0;0;0;0
  94;C;lne_19_20_1;;;0;0;12;100;0;0;0;0;0;0;0;0;0;0;0
  95;C;lne_1_2_1;;;0;0;12;100;0;0;0;0;0;0;0;0;0;0;0
  96;C;lne_1_3_1;;;0;0;12;100;0;0;0;0;0;0;0;0;0;0;0
  97;C;lne_2_4_1;;;0;0;12;100;0;0;0;0;0;0;0;0;0;0;0
  98;C;lne_2_5_1;;;0;0;12;100;0;0;0;0;0;0;0;0;0;0;0
  99;C;lne_2_6_1;;;0;0;12;100;0;0;0;0;0;0;0;0;0;0;0
  100;C;lne_3_4_1;;;0;0;12;100;0;0;0;0;0;0;0;0;0;0;0
  101;C;lne_4_6_1;;;0;0;12;100;0;0;0;0;0;0;0;0;0;0;0
  102;C;lne_5_7_1;;;0;0;12;100;0;0;0;0;0;0;0;0;0;0;0
  103;C;lne_6_7_1;;;0;0;12;100;0;0;0;0;0;0;0;0;0;0;0
  104;C;lne_6_8_1;;;0;0;12;100;0;0;0;0;0;0;0;0;0;0;0
  105;C;trf_4_12_1;;;0;0;12;65;0;0;0;0;0;0;0;0;0;0;0
  106;C;trf_6_10_1;;;0;0;12;32;0;0;0;0;0;0;0;0;0;0;0
  107;C;trf_6_9_1;;;0;0;12;65;0;0;0;0;0;0;0;0;0;0;0
  108;C;zpu_12_13_1;;;0;0;12;100;0;0;0;0;0;0;0;0;0;0;0
  109;C;zpu_9_11_1;;;0;0;12;100;0;0;0;0;0;0;0;0;0;0;0


$$ElmLne;FID(a:40);OP(a:1);loc_name(a:80);fold_id(p);typ_id(p);dline(r);fline(r);GPScoords:MATRIX(a);nlnum(i);inAir(i)
  110;C;lne_10_17_1;144;376;1;1;;1;0
  111;C;lne_10_20_1;144;377;1;1;;1;0
  112;C;lne_10_21_1;144;378;1;1;;1;0
  113;C;lne_10_22_1;144;379;1;1;;1;0
  114;C;lne_12_14_1;144;380;1;1;;1;0
  115;C;lne_12_15_1;144;381;1;1;;1;0
  116;C;lne_12_16_1;144;382;1;1;;1;0
  117;C;lne_14_15_1;144;383;1;1;;1;0
  118;C;lne_15_18_1;144;384;1;1;;1;0
  119;C;lne_15_23_1;144;385;1;1;;1;0
  120;C;lne_16_17_1;144;386;1;1;;1;0
  121;C;lne_18_19_1;144;387;1;1;;1;0
  122;C;lne_19_20_1;144;388;1;1;;1;0
  123;C;lne_1_2_1;144;389;1;1;;1;0
  124;C;lne_1_3_1;144;390;1;1;;1;0
  125;C;lne_21_22_1;144;391;1;1;;1;0
  126;C;lne_22_24_1;144;392;1;1;;1;0
  127;C;lne_23_24_1;144;393;1;1;;1;0
  128;C;lne_24_25_1;144;394;1;1;;1;0
  129;C;lne_25_26_1;144;395;1;1;;1;0
  130;C;lne_25_27_1;144;396;1;1;;1;0
  131;C;lne_27_29_1;144;397;1;1;;1;0
  132;C;lne_27_30_1;144;398;1;1;;1;0
  133;C;lne_29_30_1;144;399;1;1;;1;0
  134;C;lne_2_4_1;144;400;1;1;;1;0
  135;C;lne_2_5_1;144;401;1;1;;1;0
  136;C;lne_2_6_1;144;402;1;1;;1;0
  137;C;lne_3_4_1;144;403;1;1;;1;0
  138;C;lne_4_6_1;144;404;1;1;;1;0
  139;C;lne_5_7_1;144;405;1;1;;1;0
  140;C;lne_6_28_1;144;406;1;1;;1;0
  141;C;lne_6_7_1;144;407;1;1;;1;0
  142;C;lne_6_8_1;144;408;1;1;;1;0
  143;C;lne_8_28_1;144;409;1;1;;1;0


$$ElmLod;FID(a:40);OP(a:1);loc_name(a:80);fold_id(p);typ_id(p);mode_inp(a:6);slini(r);plini(r);qlini(r);coslini(r);pf_recap(i);scale0(r);i_scale(i);outserv(i);classif(a:40)
  ElmLod_10_1;C;lod_10_1;144;410;DEF;6,135145;5,8;2;0,945373;0;1;1;0;
  ElmLod_12_1;C;lod_12_1;144;411;DEF;13,47924;11,2;7,5;0,830907;0;1;1;0;
  ElmLod_14_1;C;lod_14_1;144;412;DEF;6,403124;6,2;1,6;0,968277;0;1;1;0;
  ElmLod_15_1;C;lod_15_1;144;413;DEF;8,572631;8,2;2,5;0,956532;0;1;1;0;
  ElmLod_16_1;C;lod_16_1;144;414;DEF;3,935734;3,5;1,8;0,889287;0;1;1;0;
  ElmLod_17_1;C;lod_17_1;144;415;DEF;10,70701;9;5,8;0,840571;0;1;1;0;
  ElmLod_18_1;C;lod_18_1;144;416;DEF;3,324154;3,2;0,9;0,962650;0;1;1;0;
  ElmLod_19_1;C;lod_19_1;144;417;DEF;10,09009;9,5;3,4;0,941517;0;1;1;0;
  ElmLod_20_1;C;lod_20_1;144;418;DEF;2,308679;2,2;0,7;0,952925;0;1;1;0;
  ElmLod_21_1;C;lod_21_1;144;419;DEF;20,77715;17,5;11,2;0,842271;0;1;1;0;
  ElmLod_23_1;C;lod_23_1;144;420;DEF;3,577709;3,2;1,6;0,894427;0;1;1;0;
  ElmLod_24_1;C;lod_24_1;144;421;DEF;10,98089;8,7;6,7;0,792285;0;1;1;0;
  ElmLod_26_1;C;lod_26_1;144;422;DEF;4,188078;3,5;2,3;0,835705;0;1;1;0;
  ElmLod_29_1;C;lod_29_1;144;423;DEF;2,563201;2,4;0,9;0,936329;0;1;1;0;
  ElmLod_2_1;C;lod_2_1;144;424;DEF;25,14319;21,7;12,7;0,863056;0;1;1;0;
  ElmLod_30_1;C;lod_30_1;144;425;DEF;10,76894;10,6;1,9;0,984312;0;1;1;0;
  ElmLod_3_1;C;lod_3_1;144;426;DEF;2,683282;2,4;1,2;0,894427;0;1;1;0;
  ElmLod_4_1;C;lod_4_1;144;427;DEF;7,766595;7,6;1,6;0,978549;0;1;1;0;
  ElmLod_5_1;C;lod_5_1;144;428;DEF;96,09703;94,2;19;0,980259;0;1;1;0;
  ElmLod_7_1;C;lod_7_1;144;429;DEF;25,27152;22,8;10,9;0,902201;0;1;1;0;
  ElmLod_8_1;C;lod_8_1;144;430;DEF;42,42641;30;30;0,707106;0;1;1;0;


$$ElmNet;FID(a:40);OP(a:1);loc_name(a:80);fold_id(p);frnom(r);pDiagram(p)
  144;C;1 1;;60;


$$ElmShnt;FID(a:40);OP(a:1);loc_name(a:80);fold_id(p);systp(i);ctech(i);shtype(i);ushnm(r);mode_inp(a:6);qcapn(r);ncapx(i);ncapa(i);outserv(i);qrean(r);qtotn(r);tandc(r);fres(r);greaf0(r);grea(r);bcap(r);xrea(r);rrea(r);gparac(r);iswitch(i);imldc(a:2);usetp_mx(r);usetp_mn(r);qsetp_mx(r);qsetp_mn(r);iQorient(i);ilcph(i)
  145;C;shntfix_10_1;144;0;1;2;33;LAY;19;1;1;0;0;19;0;0;0;0;17447,2;66,56028;0;0;0;V;1,05;0,95;0;0;0;0
  146;C;shntfix_24_1;144;0;1;2;33;LAY;4,3;1;1;0;0;4,3;0;0;0;0;3948,577;66,56028;0;0;0;V;1,05;0,95;0;0;0;0


$$ElmSym;FID(a:40);OP(a:1);loc_name(a:80);fold_id(p);typ_id(p);cCategory(a);ngnum(i);i_mot(i);pgini(r);qgini(r);cosgini(r);usetp(r);pf_recap(i);q_min(r);q_max(r);outserv(i);av_mode(a);phtech(i)
  147;C;sym_11_1;144;431;Others;1;0;0;16,172;0;1,082;0;-0,06;0,24;0;constv;1
  148;C;sym_13_1;144;432;Others;1;0;0;10,619;0;1,071;0;-0,06;0,24;0;constv;1
  149;C;sym_1_1;144;433;Others;1;0;260,948;-16,787;0,997937;1,06;1;0;0;0;constv;1
  150;C;sym_2_1;144;434;Others;1;0;40;50;0,624695;1,045;0;-0,4;0,5;0;constv;1
  151;C;sym_5_1;144;435;Others;1;0;0;36,85;0;1,01;0;-0,4;0,4;0;constv;1
  152;C;sym_8_1;144;436;Others;1;0;0;37,144;0;1,01;0;-0,1;0,4;0;constv;1


$$ElmTerm;FID(a:40);OP(a:1);loc_name(a:80);fold_id(p);typ_id(p);systype(i);iUsage(i);uknom(r);unknom(r);iminus(i);outserv(i);GPSlat(r);GPSlon(r);vtarget(r)
  ElmTerm_1;C;1 Glen Lyn;144;;0;0;132;76,21024;0;0;0;0;1
  ElmTerm_2;C;2 Claytor;144;;0;0;132;76,21024;0;0;0;0;1
  ElmTerm_3;C;3 Kumis;144;;0;0;132;76,21024;0;0;0;0;1
  ElmTerm_4;C;4 Hancock;144;;0;0;132;76,21024;0;0;0;0;1
  ElmTerm_5;C;5 Fieldale;144;;0;0;132;76,21024;0;0;0;0;1
  ElmTerm_6;C;6 Roanoke;144;;0;0;132;76,21024;0;0;0;0;1
  ElmTerm_7;C;7 Blaine;144;;0;0;132;76,21024;0;0;0;0;1
  ElmTerm_8;C;8 Reusens;144;;0;0;132;76,21024;0;0;0;0;1
  ElmTerm_9;C;9 Roanoke;144;;0;0;1;0,577350;0;0;0;0;1
  ElmTerm_10;C;10 Roanoke;144;;0;0;33;19,05256;0;0;0;0;1
  ElmTerm_11;C;11 Roanoke;144;;0;0;11;6,350853;0;0;0;0;1
  ElmTerm_12;C;12 Hancock;144;;0;0;33;19,05256;0;0;0;0;1
  ElmTerm_13;C;13 Hancock;144;;0;0;11;6,350853;0;0;0;0;1
  ElmTerm_14;C;14 Bus 14;144;;0;0;33;19,05256;0;0;0;0;1
  ElmTerm_15;C;15 Bus 15;144;;0;0;33;19,05256;0;0;0;0;1
  ElmTerm_16;C;16 Bus 16;144;;0;0;33;19,05256;0;0;0;0;1
  ElmTerm_17;C;17 Bus 17;144;;0;0;33;19,05256;0;0;0;0;1
  ElmTerm_18;C;18 Bus 18;144;;0;0;33;19,05256;0;0;0;0;1
  ElmTerm_19;C;19 Bus 19;144;;0;0;33;19,05256;0;0;0;0;1
  ElmTerm_20;C;20 Bus 20;144;;0;0;33;19,05256;0;0;0;0;1
  ElmTerm_21;C;21 Bus 21;144;;0;0;33;19,05256;0;0;0;0;1
  ElmTerm_22;C;22 Bus 22;144;;0;0;33;19,05256;0;0;0;0;1
  ElmTerm_23;C;23 Bus 23;144;;0;0;33;19,05256;0;0;0;0;1
  ElmTerm_24;C;24 Bus 24;144;;0;0;33;19,05256;0;0;0;0;1
  ElmTerm_25;C;25 Bus 25;144;;0;0;33;19,05256;0;0;0;0;1
  ElmTerm_26;C;26 Bus 26;144;;0;0;33;19,05256;0;0;0;0;1
  ElmTerm_27;C;27 Cloverdl;144;;0;0;33;19,05256;0;0;0;0;1
  ElmTerm_28;C;28 Cloverdl;144;;0;0;132;76,21024;0;0;0;0;1
  ElmTerm_29;C;29 Bus 29;144;;0;0;33;19,05256;0;0;0;0;1
  ElmTerm_30;C;30 Bus 30;144;;0;0;33;19,05256;0;0;0;0;1


$$ElmTr2;FID(a:40);OP(a:1);loc_name(a:80);fold_id(p);typ_id(p);ntnum(i);outserv(i);nntap(i);i_auto(i);ntrcn(i);usetp(r);usp_low(r);usp_up(r);t2ldc(i)
  ElmTr2_28_27_1;C;trf_28_27_1;144;437;1;0;-1;0;0;1;0,99;1,01;0
  ElmTr2_4_12_1;C;trf_4_12_1;144;438;1;0;-1;0;0;1;0,99;1,01;0
  ElmTr2_6_10_1;C;trf_6_10_1;144;439;1;0;-1;0;0;1;0,99;1,01;0
  ElmTr2_6_9_1;C;trf_6_9_1;144;440;1;0;-1;0;0;1;0,99;1,01;0


$$ElmZone;FID(a:40);OP(a:1);loc_name(a:80);fold_id(p);icolor(i);curscale(r)
  153;C;1_IEEE 30;;1;1


$$StaCubic;FID(a:40);OP(a:1);loc_name(a:80);fold_id(p);obj_bus(i);obj_id(p);it2p1(i);it2p2(i);it2p3(i)
  154;C;lne_1_2_1;ElmTerm_1;0;123;0;1;2
  155;C;lne_1_3_1;ElmTerm_1;0;124;0;1;2
  156;C;sym_1_1;ElmTerm_1;0;149;0;1;2
  157;C;lne_10_17_1;ElmTerm_10;0;110;0;1;2
  158;C;lne_10_20_1;ElmTerm_10;0;111;0;1;2
  159;C;lne_10_21_1;ElmTerm_10;0;112;0;1;2
  160;C;lne_10_22_1;ElmTerm_10;0;113;0;1;2
  161;C;lod_10_1;ElmTerm_10;0;ElmLod_10_1;0;1;2
  162;C;shntfix_10_1;ElmTerm_10;0;145;0;1;2
  163;C;trf_6_10_1;ElmTerm_10;1;ElmTr2_6_10_1;0;1;2
  164;C;zpu_9_10_1;ElmTerm_10;1;;0;1;2
  165;C;sym_11_1;ElmTerm_11;0;147;0;1;2
  166;C;zpu_9_11_1;ElmTerm_11;1;;0;1;2
  167;C;lne_12_14_1;ElmTerm_12;0;114;0;1;2
  168;C;lne_12_15_1;ElmTerm_12;0;115;0;1;2
  169;C;lne_12_16_1;ElmTerm_12;0;116;0;1;2
  170;C;lod_12_1;ElmTerm_12;0;ElmLod_12_1;0;1;2
  171;C;trf_4_12_1;ElmTerm_12;1;ElmTr2_4_12_1;0;1;2
  172;C;zpu_12_13_1;ElmTerm_12;0;;0;1;2
  173;C;sym_13_1;ElmTerm_13;0;148;0;1;2
  174;C;zpu_12_13_1;ElmTerm_13;1;;0;1;2
  175;C;lne_12_14_1;ElmTerm_14;1;114;0;1;2
  176;C;lne_14_15_1;ElmTerm_14;0;117;0;1;2
  177;C;lod_14_1;ElmTerm_14;0;ElmLod_14_1;0;1;2
  178;C;lne_12_15_1;ElmTerm_15;1;115;0;1;2
  179;C;lne_14_15_1;ElmTerm_15;1;117;0;1;2
  180;C;lne_15_18_1;ElmTerm_15;0;118;0;1;2
  181;C;lne_15_23_1;ElmTerm_15;0;119;0;1;2
  182;C;lod_15_1;ElmTerm_15;0;ElmLod_15_1;0;1;2
  183;C;lne_12_16_1;ElmTerm_16;1;116;0;1;2
  184;C;lne_16_17_1;ElmTerm_16;0;120;0;1;2
  185;C;lod_16_1;ElmTerm_16;0;ElmLod_16_1;0;1;2
  186;C;lne_10_17_1;ElmTerm_17;1;110;0;1;2
  187;C;lne_16_17_1;ElmTerm_17;1;120;0;1;2
  188;C;lod_17_1;ElmTerm_17;0;ElmLod_17_1;0;1;2
  189;C;lne_15_18_1;ElmTerm_18;1;118;0;1;2
  190;C;lne_18_19_1;ElmTerm_18;0;121;0;1;2
  191;C;lod_18_1;ElmTerm_18;0;ElmLod_18_1;0;1;2
  192;C;lne_18_19_1;ElmTerm_19;1;121;0;1;2
  193;C;lne_19_20_1;ElmTerm_19;0;122;0;1;2
  194;C;lod_19_1;ElmTerm_19;0;ElmLod_19_1;0;1;2
  195;C;lne_1_2_1;ElmTerm_2;1;123;0;1;2
  196;C;lne_2_4_1;ElmTerm_2;0;134;0;1;2
  197;C;lne_2_5_1;ElmTerm_2;0;135;0;1;2
  198;C;lne_2_6_1;ElmTerm_2;0;136;0;1;2
  199;C;lod_2_1;ElmTerm_2;0;ElmLod_2_1;0;1;2
  200;C;sym_2_1;ElmTerm_2;0;150;0;1;2
  201;C;lne_10_20_1;ElmTerm_20;1;111;0;1;2
  202;C;lne_19_20_1;ElmTerm_20;1;122;0;1;2
  203;C;lod_20_1;ElmTerm_20;0;ElmLod_20_1;0;1;2
  204;C;lne_10_21_1;ElmTerm_21;1;112;0;1;2
  205;C;lne_21_22_1;ElmTerm_21;0;125;0;1;2
  206;C;lod_21_1;ElmTerm_21;0;ElmLod_21_1;0;1;2
  207;C;lne_10_22_1;ElmTerm_22;1;113;0;1;2
  208;C;lne_21_22_1;ElmTerm_22;1;125;0;1;2
  209;C;lne_22_24_1;ElmTerm_22;0;126;0;1;2
  210;C;lne_15_23_1;ElmTerm_23;1;119;0;1;2
  211;C;lne_23_24_1;ElmTerm_23;0;127;0;1;2
  212;C;lod_23_1;ElmTerm_23;0;ElmLod_23_1;0;1;2
  213;C;lne_22_24_1;ElmTerm_24;1;126;0;1;2
  214;C;lne_23_24_1;ElmTerm_24;1;127;0;1;2
  215;C;lne_24_25_1;ElmTerm_24;0;128;0;1;2
  216;C;lod_24_1;ElmTerm_24;0;ElmLod_24_1;0;1;2
  217;C;shntfix_24_1;ElmTerm_24;0;146;0;1;2
  218;C;lne_24_25_1;ElmTerm_25;1;128;0;1;2
  219;C;lne_25_26_1;ElmTerm_25;0;129;0;1;2
  220;C;lne_25_27_1;ElmTerm_25;0;130;0;1;2
  221;C;lne_25_26_1;ElmTerm_26;1;129;0;1;2
  222;C;lod_26_1;ElmTerm_26;0;ElmLod_26_1;0;1;2
  223;C;lne_25_27_1;ElmTerm_27;1;130;0;1;2
  224;C;lne_27_29_1;ElmTerm_27;0;131;0;1;2
  225;C;lne_27_30_1;ElmTerm_27;0;132;0;1;2
  226;C;trf_28_27_1;ElmTerm_27;1;ElmTr2_28_27_1;0;1;2
  227;C;lne_6_28_1;ElmTerm_28;1;140;0;1;2
  228;C;lne_8_28_1;ElmTerm_28;1;143;0;1;2
  229;C;trf_28_27_1;ElmTerm_28;0;ElmTr2_28_27_1;0;1;2
  230;C;lne_27_29_1;ElmTerm_29;1;131;0;1;2
  231;C;lne_29_30_1;ElmTerm_29;0;133;0;1;2
  232;C;lod_29_1;ElmTerm_29;0;ElmLod_29_1;0;1;2
  233;C;lne_1_3_1;ElmTerm_3;1;124;0;1;2
  234;C;lne_3_4_1;ElmTerm_3;0;137;0;1;2
  235;C;lod_3_1;ElmTerm_3;0;ElmLod_3_1;0;1;2
  236;C;lne_27_30_1;ElmTerm_30;1;132;0;1;2
  237;C;lne_29_30_1;ElmTerm_30;1;133;0;1;2
  238;C;lod_30_1;ElmTerm_30;0;ElmLod_30_1;0;1;2
  239;C;lne_2_4_1;ElmTerm_4;1;134;0;1;2
  240;C;lne_3_4_1;ElmTerm_4;1;137;0;1;2
  241;C;lne_4_6_1;ElmTerm_4;0;138;0;1;2
  242;C;lod_4_1;ElmTerm_4;0;ElmLod_4_1;0;1;2
  243;C;trf_4_12_1;ElmTerm_4;0;ElmTr2_4_12_1;0;1;2
  244;C;lne_2_5_1;ElmTerm_5;1;135;0;1;2
  245;C;lne_5_7_1;ElmTerm_5;0;139;0;1;2
  246;C;lod_5_1;ElmTerm_5;0;ElmLod_5_1;0;1;2
  247;C;sym_5_1;ElmTerm_5;0;151;0;1;2
  248;C;lne_2_6_1;ElmTerm_6;1;136;0;1;2
  249;C;lne_4_6_1;ElmTerm_6;1;138;0;1;2
  250;C;lne_6_28_1;ElmTerm_6;0;140;0;1;2
  251;C;lne_6_7_1;ElmTerm_6;0;141;0;1;2
  252;C;lne_6_8_1;ElmTerm_6;0;142;0;1;2
  253;C;trf_6_10_1;ElmTerm_6;0;ElmTr2_6_10_1;0;1;2
  254;C;trf_6_9_1;ElmTerm_6;0;ElmTr2_6_9_1;0;1;2
  255;C;lne_5_7_1;ElmTerm_7;1;139;0;1;2
  256;C;lne_6_7_1;ElmTerm_7;1;141;0;1;2
  257;C;lod_7_1;ElmTerm_7;0;ElmLod_7_1;0;1;2
  258;C;lne_6_8_1;ElmTerm_8;1;142;0;1;2
  259;C;lne_8_28_1;ElmTerm_8;0;143;0;1;2
  260;C;lod_8_1;ElmTerm_8;0;ElmLod_8_1;0;1;2
  261;C;sym_8_1;ElmTerm_8;0;152;0;1;2
  262;C;trf_6_9_1;ElmTerm_9;1;ElmTr2_6_9_1;0;1;2
  263;C;zpu_9_10_1;ElmTerm_9;0;;0;1;2
  264;C;zpu_9_11_1;ElmTerm_9;0;;0;1;2


$$StaSwitch;FID(a:40);OP(a:1);loc_name(a:80);fold_id(p);on_off(i);typ_id(p);aUsage(a)
  265;C;Switch;154;1;;cbk
  266;C;Switch;155;1;;cbk
  267;C;Switch;156;1;;cbk
  268;C;Switch;157;1;;cbk
  269;C;Switch;158;1;;cbk
  270;C;Switch;159;1;;cbk
  271;C;Switch;160;1;;cbk
  272;C;Switch;161;1;;cbk
  273;C;Switch;162;1;;cbk
  274;C;Switch;163;1;;cbk
  275;C;Switch;164;1;;cbk
  276;C;Switch;165;1;;cbk
  277;C;Switch;166;1;;cbk
  278;C;Switch;167;1;;cbk
  279;C;Switch;168;1;;cbk
  280;C;Switch;169;1;;cbk
  281;C;Switch;170;1;;cbk
  282;C;Switch;171;1;;cbk
  283;C;Switch;172;1;;cbk
  284;C;Switch;173;1;;cbk
  285;C;Switch;174;1;;cbk
  286;C;Switch;175;1;;cbk
  287;C;Switch;176;1;;cbk
  288;C;Switch;177;1;;cbk
  289;C;Switch;178;1;;cbk
  290;C;Switch;179;1;;cbk
  291;C;Switch;180;1;;cbk
  292;C;Switch;181;1;;cbk
  293;C;Switch;182;1;;cbk
  294;C;Switch;183;1;;cbk
  295;C;Switch;184;1;;cbk
  296;C;Switch;185;1;;cbk
  297;C;Switch;186;1;;cbk
  298;C;Switch;187;1;;cbk
  299;C;Switch;188;1;;cbk
  300;C;Switch;189;1;;cbk
  301;C;Switch;190;1;;cbk
  302;C;Switch;191;1;;cbk
  303;C;Switch;192;1;;cbk
  304;C;Switch;193;1;;cbk
  305;C;Switch;194;1;;cbk
  306;C;Switch;195;1;;cbk
  307;C;Switch;196;1;;cbk
  308;C;Switch;197;1;;cbk
  309;C;Switch;198;1;;cbk
  310;C;Switch;199;1;;cbk
  311;C;Switch;200;1;;cbk
  312;C;Switch;201;1;;cbk
  313;C;Switch;202;1;;cbk
  314;C;Switch;203;1;;cbk
  315;C;Switch;204;1;;cbk
  316;C;Switch;205;1;;cbk
  317;C;Switch;206;1;;cbk
  318;C;Switch;207;1;;cbk
  319;C;Switch;208;1;;cbk
  320;C;Switch;209;1;;cbk
  321;C;Switch;210;1;;cbk
  322;C;Switch;211;1;;cbk
  323;C;Switch;212;1;;cbk
  324;C;Switch;213;1;;cbk
  325;C;Switch;214;1;;cbk
  326;C;Switch;215;1;;cbk
  327;C;Switch;216;1;;cbk
  328;C;Switch;217;1;;cbk
  329;C;Switch;218;1;;cbk
  330;C;Switch;219;1;;cbk
  331;C;Switch;220;1;;cbk
  332;C;Switch;221;1;;cbk
  333;C;Switch;222;1;;cbk
  334;C;Switch;223;1;;cbk
  335;C;Switch;224;1;;cbk
  336;C;Switch;225;1;;cbk
  337;C;Switch;226;1;;cbk
  338;C;Switch;227;1;;cbk
  339;C;Switch;228;1;;cbk
  340;C;Switch;229;1;;cbk
  341;C;Switch;230;1;;cbk
  342;C;Switch;231;1;;cbk
  343;C;Switch;232;1;;cbk
  344;C;Switch;233;1;;cbk
  345;C;Switch;234;1;;cbk
  346;C;Switch;235;1;;cbk
  347;C;Switch;236;1;;cbk
  348;C;Switch;237;1;;cbk
  349;C;Switch;238;1;;cbk
  350;C;Switch;239;1;;cbk
  351;C;Switch;240;1;;cbk
  352;C;Switch;241;1;;cbk
  353;C;Switch;242;1;;cbk
  354;C;Switch;243;1;;cbk
  355;C;Switch;244;1;;cbk
  356;C;Switch;245;1;;cbk
  357;C;Switch;246;1;;cbk
  358;C;Switch;247;1;;cbk
  359;C;Switch;248;1;;cbk
  360;C;Switch;249;1;;cbk
  361;C;Switch;250;1;;cbk
  362;C;Switch;251;1;;cbk
  363;C;Switch;252;1;;cbk
  364;C;Switch;253;1;;cbk
  365;C;Switch;254;1;;cbk
  366;C;Switch;255;1;;cbk
  367;C;Switch;256;1;;cbk
  368;C;Switch;257;1;;cbk
  369;C;Switch;258;1;;cbk
  370;C;Switch;259;1;;cbk
  371;C;Switch;260;1;;cbk
  372;C;Switch;261;1;;cbk
  373;C;Switch;262;1;;cbk
  374;C;Switch;263;1;;cbk
  375;C;Switch;264;1;;cbk


$$TypLne;FID(a:40);OP(a:1);loc_name(a:80);fold_id(p);uline(r);sline(r);InomAir(r);cohl_(i);rline(r);xline(r);rline0(r);xline0(r);Ithr(r);tmax(r);rtemp(r);systp(i);nlnph(i);nneutral(i);frnom(r);mlei(a:4);bline(r);bline0(r)
  376;C;tlne_10_17_1;144;33;99999;1;0;0,352836;0,920205;1e+08;1e+08;0;80;80;0;3;0;60;Cu;0;0
  377;C;tlne_10_20_1;144;33;0,559854;1;0;1,019304;2,27601;1e+08;1e+08;0;80;80;0;3;0;60;Cu;0;0
  378;C;tlne_10_21_1;144;33;99999;1;0;0,378972;0,815661;1e+08;1e+08;0;80;80;0;3;0;60;Cu;0;0
  379;C;tlne_10_22_1;144;33;99999;1;0;0,791703;1,632411;1e+08;1e+08;0;80;80;0;3;0;60;Cu;0;0
  380;C;tlne_12_14_1;144;33;99999;1;0;1,340559;2,786751;1e+08;1e+08;0;80;80;0;3;0;60;Cu;0;0
  381;C;tlne_12_15_1;144;33;0,559854;1;0;0,720918;1,420056;1e+08;1e+08;0;80;80;0;3;0;60;Cu;0;0
  382;C;tlne_12_16_1;144;33;0,279927;1;0;1,029105;2,163843;1e+08;1e+08;0;80;80;0;3;0;60;Cu;0;0
  383;C;tlne_14_15_1;144;33;0,279927;1;0;2,40669;2,174733;1e+08;1e+08;0;80;80;0;3;0;60;Cu;0;0
  384;C;tlne_15_18_1;144;33;0,279927;1;0;1,168497;2,379465;1e+08;1e+08;0;80;80;0;3;0;60;Cu;0;0
  385;C;tlne_15_23_1;144;33;99999;1;0;1,089;2,19978;1e+08;1e+08;0;80;80;0;3;0;60;Cu;0;0
  386;C;tlne_16_17_1;144;33;0,279927;1;0;0,570636;2,094147;1e+08;1e+08;0;80;80;0;3;0;60;Cu;0;0
  387;C;tlne_18_19_1;144;33;0,279927;1;0;0,695871;1,406988;1e+08;1e+08;0;80;80;0;3;0;60;Cu;0;0
  388;C;tlne_19_20_1;144;33;0,279927;1;0;0,37026;0,74052;1e+08;1e+08;0;80;80;0;3;0;60;Cu;0;0
  389;C;tlne_1_2_1;144;132;0,568602;1;0;3,345408;10,0188;1e+08;1e+08;0;80;80;0;3;0;60;Cu;303,0303;0
  390;C;tlne_1_3_1;144;132;0,568602;1;0;7,875648;28,78445;1e+08;1e+08;0;80;80;0;3;0;60;Cu;234,1598;0
  391;C;tlne_21_22_1;144;33;99999;1;0;0,126324;0,257004;1e+08;1e+08;0;80;80;0;3;0;60;Cu;0;0
  392;C;tlne_22_24_1;144;33;99999;1;0;1,25235;1,94931;1e+08;1e+08;0;80;80;0;3;0;60;Cu;0;0
  393;C;tlne_23_24_1;144;33;99999;1;0;1,43748;2,9403;1e+08;1e+08;0;80;80;0;3;0;60;Cu;0;0
  394;C;tlne_24_25_1;144;33;99999;1;0;2,052765;3,584988;1e+08;1e+08;0;80;80;0;3;0;60;Cu;0;0
  395;C;tlne_25_26_1;144;33;99999;1;0;2,770416;4,1382;1e+08;1e+08;0;80;80;0;3;0;60;Cu;0;0
  396;C;tlne_25_27_1;144;33;99999;1;0;1,190277;2,272743;1e+08;1e+08;0;80;80;0;3;0;60;Cu;0;0
  397;C;tlne_27_29_1;144;33;99999;1;0;2,393622;4,522617;1e+08;1e+08;0;80;80;0;3;0;60;Cu;0;0
  398;C;tlne_27_30_1;144;33;99999;1;0;3,486978;6,563403;1e+08;1e+08;0;80;80;0;3;0;60;Cu;0;0
  399;C;tlne_29_30_1;144;33;99999;1;0;2,612511;4,936437;1e+08;1e+08;0;80;80;0;3;0;60;Cu;0;0
  400;C;tlne_2_4_1;144;132;0,284301;1;0;9,93168;30,26549;1e+08;1e+08;0;80;80;0;3;0;60;Cu;211,2029;0
  401;C;tlne_2_5_1;144;132;0,568602;1;0;8,224128;34,55179;1e+08;1e+08;0;80;80;0;3;0;60;Cu;239,899;0
  402;C;tlne_2_6_1;144;132;0,284301;1;0;10,12334;30,71851;1e+08;1e+08;0;80;80;0;3;0;60;Cu;214,6465;0
  403;C;tlne_3_4_1;144;132;0,568602;1;0;2,299968;6,603696;1e+08;1e+08;0;80;80;0;3;0;60;Cu;48,20937;0
  404;C;tlne_4_6_1;144;132;0,393647;1;0;2,073456;7,213536;1e+08;1e+08;0;80;80;0;3;0;60;Cu;51,65289;0
  405;C;tlne_5_7_1;144;132;0,306170;1;0;8,01504;20,21184;1e+08;1e+08;0;80;80;0;3;0;60;Cu;117,0799;0
  406;C;tlne_6_28_1;144;132;99999;1;0;2,944656;10,43698;1e+08;1e+08;0;80;80;0;3;0;60;Cu;74,60973;0
  407;C;tlne_6_7_1;144;132;0,568602;1;0;4,652208;14,28768;1e+08;1e+08;0;80;80;0;3;0;60;Cu;97,56657;0
  408;C;tlne_6_8_1;144;132;0,139963;1;0;2,09088;7,31808;1e+08;1e+08;0;80;80;0;3;0;60;Cu;51,65289;0
  409;C;tlne_8_28_1;144;132;99999;1;0;11,08166;34,848;1e+08;1e+08;0;80;80;0;3;0;60;Cu;245,6382;0


$$TypLod;FID(a:40);OP(a:1);loc_name(a:80);fold_id(p);systp(i);phtech(i);aP(r);bP(r);kpu0(r);kpu1(r);kpu(r);aQ(r);bQ(r);kqu0(r);kqu1(r);kqu(r)
  410;C;typ_lod_10_1;144;0;0;0,999999;0;0;1;2;1;0;0;1;2
  411;C;typ_lod_12_1;144;0;0;1;0;0;1;2;1;0;0;1;2
  412;C;typ_lod_14_1;144;0;0;1;0;0;1;2;1;0;0;1;2
  413;C;typ_lod_15_1;144;0;0;1;0;0;1;2;1;0;0;1;2
  414;C;typ_lod_16_1;144;0;0;1;0;0;1;2;1;0;0;1;2
  415;C;typ_lod_17_1;144;0;0;1;0;0;1;2;0,999999;0;0;1;2
  416;C;typ_lod_18_1;144;0;0;1;0;0;1;2;1;0;0;1;2
  417;C;typ_lod_19_1;144;0;0;1;0;0;1;2;1;0;0;1;2
  418;C;typ_lod_20_1;144;0;0;1;0;0;1;2;1;0;0;1;2
  419;C;typ_lod_21_1;144;0;0;1;0;0;1;2;1;0;0;1;2
  420;C;typ_lod_23_1;144;0;0;1;0;0;1;2;1;0;0;1;2
  421;C;typ_lod_24_1;144;0;0;1;0;0;1;2;1;0;0;1;2
  422;C;typ_lod_26_1;144;0;0;1;0;0;1;2;1;0;0;1;2
  423;C;typ_lod_29_1;144;0;0;0,999999;0;0;1;2;1;0;0;1;2
  424;C;typ_lod_2_1;144;0;0;0,999999;0;0;1;2;1;0;0;1;2
  425;C;typ_lod_30_1;144;0;0;0,999999;0;0;1;2;1;0;0;1;2
  426;C;typ_lod_3_1;144;0;0;0,999999;0;0;1;2;0,999999;0;0;1;2
  427;C;typ_lod_4_1;144;0;0;1;0;0;1;2;1;0;0;1;2
  428;C;typ_lod_5_1;144;0;0;1;0;0;1;2;1;0;0;1;2
  429;C;typ_lod_7_1;144;0;0;1;0;0;1;2;1;0;0;1;2
  430;C;typ_lod_8_1;144;0;0;1;0;0;1;2;1;0;0;1;2


$$TypSym;FID(a:40);OP(a:1);loc_name(a:80);fold_id(p);sgn(r);ugn(r);cosn(r);xd(r);xq(r);xdsss(r);rstr(r);xdsat(r);satur(i);nphase(i);nslty(i);x0sy(r);r0sy(r);x2sy(r);r2sy(r);iopt_data(i);xds(r);xqs(r);xl(r);xdss(r);xqss(r);xrlq(r);tds(r);tqs(r);tdss(r);tqss(r)
  431;C;tsym_11_1;144;100;11;1;2;2;1;0;1,2;0;3;2;0;0;1;0;1;0,3;0,3;0,5;1;1;0;1;1;0,05;0,05
  432;C;tsym_13_1;144;100;11;1;2;2;1;0;1,2;0;3;2;0;0;1;0;1;0,3;0,3;0,5;1;1;0;1;1;0,05;0,05
  433;C;tsym_1_1;144;100;132;1;2;2;1;0;1,2;0;3;2;0;0;1;0;1;0,3;0,3;0,5;1;1;0;1;1;0,05;0,05
  434;C;tsym_2_1;144;100;132;1;2;2;1;0;1,2;0;3;2;0;0;1;0;1;0,3;0,3;0,5;1;1;0;1;1;0,05;0,05
  435;C;tsym_5_1;144;100;132;1;2;2;1;0;1,2;0;3;2;0;0;1;0;1;0,3;0,3;0,5;1;1;0;1;1;0,05;0,05
  436;C;tsym_8_1;144;100;132;1;2;2;1;0;1,2;0;3;2;0;0;1;0;1;0,3;0,3;0,5;1;1;0;1;1;0,05;0,05


$$TypTr2;FID(a:40);OP(a:1);loc_name(a:80);fold_id(p);nt2ph(i);strn(r);frnom(r);utrn_h(r);utrn_l(r);uktr(r);pcutr(r);uk0tr(r);ur0tr(r);tr2cn_h(a:4);tr2cn_l(a:4);nt2ag(r);curmg(r);pfe(r);zx0hl_n(r);itapch(i);tap_side(i);dutap(r);phitr(r);nntap0(i);ntpmn(i);ntpmx(i);manuf(a:40)
  437;C;ttrf_28_27_1;144;3;100;60;132;33;39,6;0;3;0;YN;YN;0;0;0;100;1;0;3,2;0;0;-1;0;
  438;C;ttrf_4_12_1;144;3;100;60;132;33;25,6;0;3;0;YN;YN;0;0;0;100;1;0;6,8;0;0;-1;0;
  439;C;ttrf_6_10_1;144;3;100;60;132;33;55,6;0;3;0;YN;YN;0;0;0;100;1;0;3,1;0;0;-1;0;
  440;C;ttrf_6_9_1;144;3;100;60;132;1;20,8;0;3;0;YN;YN;0;0;0;100;1;0;2,2;0;0;-1;0;
